#  run_04.inp
#
#  Modified:
#
#    21 July 2005
#
#  The name of the first solution file in the first series.
#
/a/fs.csit.fsu.edu/u8/users/burkardt/public_html/datasets/burgers/burgers_01.txt
#
#  The name of the first solution file in the next series.
#
NONE
#
#  The range of cluster sizes to examine.  Because these values are
#  NOT equal, the program will examine the clustering problem for
#  each value, and make an energy table.
#
1 16
#
#  The number of different random initial configurations to check.
#
15
#
#  The number of energy iterations to take.
#
30
#
#  NO, we don't want comments in the output files.
#
NO
